February 6, 1989

TO: G. G. Strauss

 

RE: 1989 CAMEL OOH Activity - Revised

Due to the multiple scheduling and variation of unit forms that CAMEL
will utilize in 1989, we have developed the attached exhibits for
tracking our OOH activity.

I will update this information as charges occur. I hope you find this

information helpful.

Gabe Gabriel
WAG: cjc
Attachment

{ cc: P. F. Ittermann

PSSE 4890S